; Filename: epanet_input_files/IISc_campus.inp
; WNTR: 1.0.0
; Created: 2023-08-30 18:37:12
[TITLE]
Scenario: Base
Date: 12-10-2022 10:36:57

[JUNCTIONS]
;ID                      Elevation       Demand Pattern                 
 J-2                               40           0.057                            ;
 J-5                               40           0.057                            ;
 J-6                               40           0.057                            ;
 J-11                              40           0.057                            ;
 J-14                              40           0.057                            ;
 J-23                              40           0.057                            ;
 J-25                              40           0.057                            ;
 J-28                              40           0.057                            ;
 J-29                              40           0.057                            ;
 J-31                              40           0.057                            ;
 J-35                              40           0.057                            ;
 J-39                              40           0.057                            ;
 J-40                              40           0.057                            ;
 J-45                              40           0.057                            ;
 J-46                              40           0.057                            ;
 J-47                              40           0.057                            ;
 J-48                              40           0.057                            ;
 J-50                              40           0.057                            ;
 J-51                              40           0.057                            ;
 J-52                              40           0.057                            ;
 J-53                              40           0.057                            ;
 J-54                              40           0.057                            ;
 J-55                              40           0.057                            ;
 J-56                              40           0.057                            ;
 J-57                              40           0.057                            ;
 J-58                              40           0.057                            ;
 J-59                              40           0.057                            ;
 J-60                              40           0.057                            ;
 J-61                              40           0.057                            ;
 J-62                              40           0.057                            ;
 J-63                              40           0.057                            ;
 J-64                              40           0.057                            ;
 J-65                              40           0.057                            ;
 J-66                              40           0.057                            ;
 J-67                              40           0.057                            ;
 J-68                              40           0.057                            ;
 J-69                              40           0.057                            ;
 J-71                              40           0.057                            ;
 J-72                              40           0.057                            ;
 J-73                              40           0.057                            ;
 J-74                              40           0.057                            ;
 J-75                              40           0.057                            ;
 J-76                              40           0.057                            ;
 J-77                              40           0.057                            ;
 J-78                              40           0.057                            ;
 J-79                              40           0.057                            ;
 J-80                              40           0.057                            ;
 J-81                              40           0.057                            ;
 J-82                              40           0.057                            ;
 J-83                              40           0.057                            ;
 J-84                              40           0.057                            ;
 J-85                              40           0.057                            ;
 J-86                              40           0.057                            ;
 J-87                              40           0.057                            ;
 J-88                              40           0.057                            ;
 J-89                              40           0.057                            ;
 J-90                              40           0.057                            ;
 J-92                              40           0.057                            ;
 J-94                              40           0.057                            ;
 J-95                              40           0.057                            ;
 J-96                              40           0.057                            ;
 J-97                              40           0.057                            ;
 J-98                              40           0.057                            ;
 J-99                              40           0.057                            ;
 J-100                             40           0.057                            ;
 J-101                             40           0.057                            ;

[RESERVOIRS]
;ID                                   Head                  Pattern
 stp2                              90                            ;
 STP1                              90                            ;

[TANKS]
;ID                              Elevation           Init Level            Min Level            Max Level             Diameter           Min Volume Volume Curve         Overflow            

[PIPES]
;ID                   Node1                Node2                              Length             Diameter            Roughness           Minor Loss               Status
 Pipes-51             J-5                  J-6                     16.687851442              63             130               0                 Open   ;
 Pipes-13             J-39                 J-40                    18.119962035             110             130               0                 Open   ;
 Pipes-49             J-5                  J-6                     16.687851442              63             130               0                 Open   ;
 Pipes-26             J-45                 J-46                    5.5988454836             160             130               0                 Open   ;
 Pipes-28             J-51                 J-52                    46.887475382             160             130               0                 Open   ;
 Pipes-46             J-53                 J-54                    64.037405082             160             130               0                 Open   ;
 Pipes-17             J-55                 J-56                    48.445325265             160             130               0                 Open   ;
 Pipes-52             J-57                 J-58                    62.252729806              63             130               0                 Open   ;
 Pipes-22             J-59                 J-60                    72.516162005             160             130               0                 Open   ;
 Pipes-45             J-61                 J-53                    99.360935329             160             130               0                 Open   ;
 Pipes-15             J-23                 J-31                    80.769860078             160             130               0                 Open   ;
 Pipes-25             J-62                 J-45                    139.44917803             160             130               0                 Open   ;
 Pipes-43             J-63                 J-64                    99.799870078             160             130               0                 Open   ;
 Pipes-21             J-29                 J-59                    116.13929971             160             130               0                 Open   ;
 Pipes-11             J-65                 J-66                    118.24128695             110             130               0                 Open   ;
 Pipes-37             J-68                 J-47                    134.96464376             160             130               0                 Open   ;
 Pipes-32             J-69                 J-85                    142.56310806             160             130               0                 Open   ;
 Pipes-18             J-56                 J-71                    150.35705809             160             130               0                 Open   ;
 Pipes-48             J-72                 J-5                     192.71388677              63             130               0                 Open   ;
 Pipes-40             J-73                 J-74                    245.10285278             160             130               0                 Open   ;
 Pipes-31             J-78                 J-69                    311.43134461             160             130               0                 Open   ;
 Pipes-47             J-80                 J-81                    501.54725393             160             130               0                 Open   ;
 Pipes-44             J-82                 J-83                    446.42537309             160             130               0                 Open   ;
 P-1                  J-79                 J-6                     537.34874473           152.4             130               0                 Open   ;
 P-2                  J-31                 J-87                    6.5537404098             160             130               0                 Open   ;
 P-3                  J-55                 J-65                    4.4635079952             160             130               0                 Open   ;
 Pipes-42(2)          J-89                 J-87                    179.05385566             160             130               0                 Open   ;
 P-4                  J-89                 J-83                    55.831520819             110             130               0                 Open   ;
 P-5                  J-82                 J-74                    5.5928593103             160             130               0                 Open   ;
 P-6                  J-82                 J-90                    73.334517249             110             130               0                 Open   ;
 P-7                  J-86                 J-74                    277.90580842             160             130               0                 Open   ;
 P-8                  J-66                 J-14                    6.7579517155             110             130               0                 Open   ;
 P-10                 J-94                 J-14                    6.9161766109              63             130               0                 Open   ;
 P-12                 J-94                 J-92                    6.3370655193              40             130               0                 Open   ;
 Pipes-19(1)          J-67                 J-95                    4.7822648195             160             130               0                 Open   ;
 Pipes-19(2)          J-95                 J-29                    131.48437471             160             130               0                 Open   ;
 P-13                 J-71                 J-95                    3.5775245264             160             130               0                 Open   ;
 P-14                 J-6                  J-96                    97.799112109              63             130               0                 Open   ;
 P-15                 J-62                 J-72                    4.5746936401             160             130               0                 Open   ;
 P-16                 J-57                 J-46                    3.6121996789             160             130               0                 Open   ;
 Pipes-29(1)          J-52                 J-97                    215.77490522             160             130               0                 Open   ;
 Pipes-29(2)          J-97                 J-77                    6.2276916304             160             130               0                 Open   ;
 P-17                 J-78                 J-97                     347.1935784             160             130               0                 Open   ;
 P-18                 J-50                 J-88                    2.3488304105             160             130               0                 Open   ;
 P-19                 J-88                 J-98                    26.326359499              63             130               0                 Open   ;
 P-20                 J-35                 J-81                     298.6009341             160             130               0                 Open   ;
 Pipes-39(1)          J-75                 J-28                     121.5748597             160             130               0                 Open   ;
 Pipes-39(2)          J-28                 J-76                     146.3878536             160             130               0                 Open   ;
 P-21                 J-28                 J-2                      14.07054132              40             130               0                 Open   ;
 P-22                 J-68                 J-99                    11.608713841             110             130               0                 Open   ;
 P-23                 J-11                 J-100                   16.141045202              90             130               0                 Open   ;
 Pipes-34(1)          J-85                 J-101                   15.730627832             160             130               0                 Open   ;
 Pipes-34(2)          J-101                J-50                    24.638900791             160             130               0                 Open   ;
 P-24                 stp2                 J-101                   128.35139651             160             130               0                 Open   ;
 Pipes-12(1)          J-65                 STP1                    4.9287101384             160             130               0                 Open   ;
 P-25                 J-68                 J-81                    5.1177807244             160             130               0                 Open   ;
 Pipes-35(1)          J-88                 J-61                    638.82176189             160             130               0                 Open   ;
 Pipes-35(2)          J-61                 J-35                    100.80685605             160             130               0                 Open   ;
 Pipes-23(1)          J-60                 J-25                     153.0601746             160             130               0                 Open   ;
 Pipes-23(2)          J-25                 J-79                    122.48568204             160             130               0                 Open   ;
 Pipes-33(1)          J-84                 J-11                    540.60575601             160             130               0                 Open   ;
 Pipes-33(2)          J-11                 J-85                    93.280629436             160             130               0                 Open   ;
 Pipes-42(1)(1)       J-86                 J-63                    38.143460289             160             130               0                 Open   ;
 Pipes-42(1)(2)       J-63                 J-89                    821.30937515             160             130               0                 Open   ;
 Pipes-12(2)(1)       STP1                 J-40                    129.88596124             160             130               0                 Open   ;
 Pipes-12(2)(2)       J-40                 J-23                    138.40506485             160             130               0                 Open   ;
 Pipes-38(1)          J-47                 J-75                    16.164107809             160             130               0                 Open   ;
 Pipes-38(2)          J-75                 J-48                    9.5297637661             160             130               0                 Open   ;

[PUMPS]
;ID                   Node1                Node2                Properties          

[VALVES]
;ID                   Node1                Node2                            Diameter Type              Setting           Minor Loss

[TAGS]
;type      name       tag       

[DEMANDS]
;ID        Demand     Pattern   

[STATUS]
;ID        Setting   

[PATTERNS]
;ID        Multipliers

[CURVES]
;ID         X-Value      Y-Value     

[CONTROLS]

[RULES]

[ENERGY]
GLOBAL PRICE           0.0000

[EMITTERS]
;ID        Flow coefficient

[QUALITY]

[SOURCES]
;Node      Type       Quality    Pattern   

[REACTIONS]
;Type           Pipe/Tank               Coefficient

 ORDER BULK 1
 ORDER TANK 1
 ORDER WALL 1
 GLOBAL BULK 0.0000    
 GLOBAL WALL 0.0000    

[MIXING]
;Tank ID             Model Fraction

[TIMES]
DURATION             00:00:00
HYDRAULIC TIMESTEP   01:00:00
QUALITY TIMESTEP     00:00:01
PATTERN TIMESTEP     01:00:00
PATTERN START        00:00:00
REPORT TIMESTEP      01:00:00
REPORT START         00:00:00
START CLOCKTIME      00:00:00 AM
RULE TIMESTEP        00:06:00
STATISTIC            NONE      

[REPORT]

[OPTIONS]
UNITS                LPS                 
HEADLOSS             H-W                 
SPECIFIC GRAVITY     0.998
VISCOSITY            0.98215786064
TRIALS               40
ACCURACY             0.001
CHECKFREQ            2
MAXCHECK             10
UNBALANCED           STOP                
DEMAND MULTIPLIER    1
EMITTER EXPONENT     0.5
QUALITY              NONE                
DIFFUSIVITY          1
TOLERANCE            0.01

[COORDINATES]
;Node      X-Coord    Y-Coord   
J-2              1050.333470848        282.259462908
J-5              1072.293995829       1749.562621079
J-6              1073.608350185       1766.198631970
J-11             1300.380519215       1062.491766580
J-14              520.249310995       1302.205051623
J-23              499.996820186       1014.093765997
J-25              416.027035331       1779.200600320
J-28             1064.393006645        281.703058183
J-29              244.506841578       1563.351962205
J-31              533.728345578        940.712847158
J-35             1550.948079493        410.681199962
J-39              466.830345913       1147.088377195
J-40              449.238006135       1142.747570208
J-45             1000.774857139       1509.428926720
J-46             1003.805999539       1513.470449920
J-47             1128.588028339        293.940824320
J-48             1121.641660339        293.688229120
J-50             1272.742807216        932.675575898
J-51             1008.731605939       1493.894321920
J-52              982.714300339       1462.825112320
J-53             1438.017148339        497.406257920
J-54             1409.979081139        463.053310720
J-55              398.082709939       1272.242033920
J-56              372.696892339       1313.288753920
J-57             1001.658940339       1516.375294720
J-58              971.473813939       1566.894334720
J-59              267.364693939       1672.605425920
J-60              267.238396339       1745.100248320
J-61             1518.271475151        492.022758979
J-62             1019.214306739       1599.858008320
J-63              540.062397700        371.192584798
J-64              526.022178739        468.989297920
J-65              399.977173939       1268.200510720
J-66              513.771311539       1300.280101120
J-67              283.332906512       1438.228040895
J-68             1259.937532339        323.747057920
J-69             1134.776610739        956.119141120
J-71              288.203797939       1437.054636978
J-72             1023.761020339       1599.352817920
J-73              929.164117939        253.525592320
J-74              850.607010739        393.210737920
J-75             1121.645686816        302.905940682
J-76              927.143356339        247.968497920
J-77              821.937455539       1323.013669120
J-78              872.961685939        979.863089920
J-79              537.136367539       1796.882264320
J-80             1390.276655539        653.636389120
J-81             1264.863138739        325.136331520
J-82              848.207356339        398.262641920
J-83              702.459925939        795.342296320
J-84              965.411529139       1448.048293120
J-85             1276.343836109        972.420606106
J-86              575.025647539        357.342219520
J-87              536.757474739        934.901144320
J-88             1274.116706586        930.770476211
J-89              646.630065455        795.772871872
J-90              775.351665606        389.896056714
J-92              533.064049027       1305.578731396
J-94              526.964942371       1303.858470545
J-95              287.072118565       1440.448452460
J-96             1107.507686967       1836.708226796
J-97              827.781563402       1324.104484018
J-98             1247.809396460        929.769157851
J-99             1263.268535680        312.626506954
J-100            1316.514646877       1062.964275612
J-101            1275.152302721        956.952399843
stp2             1399.238945294        989.763771677
STP1              401.466281480       1263.502134154

[VERTICES]
;Link      X-Coord    Y-Coord   
Pipes-26         1001.027452339       1509.934117120
Pipes-26         1001.532642739       1511.449688320
Pipes-26         1002.037833139       1512.965259520
Pipes-28         1013.025724339       1487.074251520
Pipes-28         1008.100117939       1483.032728320
Pipes-28         1006.710844339       1482.022347520
Pipes-28         1005.447868339       1480.885669120
Pipes-28         1001.911535539       1478.107121920
Pipes-28          998.754095539       1475.454872320
Pipes-28          996.101845939       1473.434110720
Pipes-28          993.828489139       1471.665944320
Pipes-28          990.671049139       1469.139992320
Pipes-28          988.145097139       1466.992933120
Pipes-46         1442.212886268        466.017882150
Pipes-17          395.051567539       1275.525771520
Pipes-17          392.146722739       1279.188401920
Pipes-17          389.999663539       1282.219544320
Pipes-17          387.347413939       1286.387365120
Pipes-17          384.821461939       1290.428888320
Pipes-17          382.042914739       1295.480792320
Pipes-17          379.264367539       1300.406398720
Pipes-17          376.106927539       1306.721278720
Pipes-52         1003.553404339       1517.133080320
Pipes-52         1002.921916339       1518.143461120
Pipes-52         1002.416725939       1518.774949120
Pipes-52         1001.911535539       1519.532734720
Pipes-52         1001.027452339       1520.922008320
Pipes-52         1000.143369139       1522.184984320
Pipes-52          999.385583539       1523.195365120
Pipes-52          998.375202739       1524.963531520
Pipes-52          997.617417139       1525.973912320
Pipes-52          995.849250739       1528.499864320
Pipes-52          994.333679539       1530.899518720
Pipes-52          993.070703539       1532.541387520
Pipes-52          991.049941939       1535.572529920
Pipes-52          989.786965939       1537.340696320
Pipes-52          988.776585139       1538.856267520
Pipes-52          987.513609139       1540.624433920
Pipes-52          985.240252339       1544.034469120
Pipes-52          984.482466739       1545.171147520
Pipes-52          983.472085939       1546.686718720
Pipes-52          982.335407539       1548.202289920
Pipes-52          981.198729139       1549.970456320
Pipes-52          980.440943539       1550.980837120
Pipes-52          979.430562739       1552.622705920
Pipes-52          978.672777139       1553.759384320
Pipes-52          977.914991539       1554.769765120
Pipes-52          976.652015539       1556.537931520
Pipes-52          976.020527539       1557.548312320
Pipes-52          975.136444339       1558.811288320
Pipes-52          973.999765939       1560.453157120
Pipes-52          972.863087539       1562.095025920
Pipes-52          971.852706739       1563.610597120
Pipes-52          970.589730739       1565.505061120
Pipes-22          267.238396339       1677.657329920
Pipes-22          267.112098739       1682.709233920
Pipes-22          267.238396339       1686.498161920
Pipes-22          267.364693939       1691.044875520
Pipes-22          267.364693939       1695.844184320
Pipes-22          267.364693939       1700.390897920
Pipes-22          267.364693939       1705.695397120
Pipes-22          267.364693939       1709.736920320
Pipes-22          267.617289139       1714.788824320
Pipes-22          267.617289139       1722.114085120
Pipes-22          267.617289139       1731.460107520
Pipes-22          267.364693939       1737.269797120
Pipes-22          267.364693939       1741.942808320
Pipes-45         1492.830306739        485.155390720
Pipes-45         1483.231689139        509.530827520
Pipes-15          506.698645939       1000.323301120
Pipes-15          512.634633139        986.935755520
Pipes-15          518.823215539        973.043019520
Pipes-15          530.568892339        947.278309120
Pipes-25         1020.350985139       1594.679806720
Pipes-25         1020.856175539       1592.027557120
Pipes-25         1021.613961139       1589.122712320
Pipes-25         1021.108770739       1566.768037120
Pipes-25         1021.108770739       1559.442776320
Pipes-25         1021.108770739       1555.906443520
Pipes-25         1021.108770739       1551.612325120
Pipes-25         1020.603580339       1547.570801920
Pipes-25         1019.214306739       1544.918552320
Pipes-25         1016.814652339       1542.645195520
Pipes-25         1011.510153139       1538.603672320
Pipes-25         1006.205653939       1533.172875520
Pipes-25         1004.690082739       1527.110590720
Pipes-25         1005.321570739       1523.447960320
Pipes-25         1006.837141939       1520.164222720
Pipes-25         1006.963439539       1519.659032320
Pipes-25         1010.626069939       1516.248997120
Pipes-25         1012.394236339       1513.975640320
Pipes-25         1013.530914739       1511.070795520
Pipes-25         1017.319842739       1505.387403520
Pipes-25         1019.088009139       1502.735153920
Pipes-25         1015.804271539       1499.956606720
Pipes-25         1013.404617139       1497.935845120
Pipes-25         1008.731605939       1493.894321920
Pipes-25         1007.089737139       1498.314737920
Pipes-25         1006.584546739       1499.956606720
Pipes-25         1004.690082739       1502.735153920
Pipes-25         1003.679701939       1504.250725120
Pipes-43          535.368201139        379.065406720
Pipes-43          535.873391539        400.409701120
Pipes-21          243.873340339       1569.925477120
Pipes-21          243.368149939       1577.503333120
Pipes-21          243.115554739       1584.954891520
Pipes-21          242.862959539       1593.795723520
Pipes-21          242.989257139       1600.994686720
Pipes-21          243.620745139       1608.698840320
Pipes-21          244.883721139       1615.013720320
Pipes-21          246.651887539       1619.434136320
Pipes-21          249.177839539       1623.475659520
Pipes-21          253.093065139       1628.274968320
Pipes-21          257.387183539       1633.200574720
Pipes-21          261.302409139       1638.126181120
Pipes-21          264.080956339       1642.167704320
Pipes-21          265.596527539       1648.103691520
Pipes-21          266.859503539       1653.913381120
Pipes-21          267.364693939       1656.818225920
Pipes-21          267.617289139       1661.364939520
Pipes-21          267.617289139       1664.774974720
Pipes-11          404.018697139       1269.337189120
Pipes-11          408.439113139       1270.600165120
Pipes-11          411.722850739       1271.484248320
Pipes-11          414.501397939       1272.368331520
Pipes-11          416.774754739       1272.873521920
Pipes-11          419.679599539       1273.757605120
Pipes-11          423.847420339       1274.894283520
Pipes-11          426.247074739       1275.652069120
Pipes-11          428.267836339       1276.157259520
Pipes-11          432.435657139       1277.293937920
Pipes-11          434.077525939       1277.799128320
Pipes-11          440.771298739       1279.693592320
Pipes-11          448.475452339       1281.840651520
Pipes-11          455.927010739       1283.987710720
Pipes-11          459.463343539       1284.998091520
Pipes-11          463.252271539       1286.008472320
Pipes-11          472.598293939       1288.660721920
Pipes-11          477.776495539       1290.176293120
Pipes-11          481.186530739       1291.060376320
Pipes-11          484.975458739       1292.070757120
Pipes-11          489.269577139       1293.333733120
Pipes-11          499.752277939       1296.238577920
Pipes-11          505.435669939       1297.880446720
Pipes-37         1175.570735539        300.382001920
Pipes-32         1140.081109939        956.876926720
Pipes-32         1145.890799539        957.761009920
Pipes-32         1151.195298739        958.518795520
Pipes-32         1154.605333939        959.023985920
Pipes-32         1157.889071539        959.529176320
Pipes-32         1163.067273139        960.034366720