[TITLE]
Scenario: Base 
Date: 27-07-2023 16:39:26 

[JUNCTIONS]
;ID              	Elev        	Demand      	Pattern         
 J-2             	951         	0           	                	;
 J-6             	950         	0           	                	;
 J-8             	949         	0           	                	;
 J-14            	965         	0           	                	;
 J-18            	963         	0           	                	;
 J-28            	908         	0           	                	;
 J-31            	960         	0           	                	;
 J-33            	952         	0           	                	;
 J-34            	953         	0           	                	;
 J-36            	881         	0           	                	;
 J-38            	947         	7.128       	2               	;
 J-39            	950         	0           	                	;
 J-40            	954         	0           	                	;
 J-41            	961         	0           	                	;
 J-42            	962         	0           	                	;
 J-43            	945         	0           	                	;
 J-44            	972         	0           	                	;
 J-45            	949         	7.128       	3               	;
 J-46            	948         	7.128       	3               	;
 J-47            	945         	7.128       	2               	;
 J-48            	940         	7.128       	2               	;
 J-49            	953         	0           	                	;
 J-50            	961         	0           	                	;
 J-51            	963         	0           	                	;
 J-52            	961         	0           	                	;
 J-53            	959         	0           	                	;
 J-54            	947         	7.128       	2               	;
 J-55            	955         	0           	                	;
 J-56            	784         	7.128       	1               	;
 J-57            	784         	7.128       	1               	;
 J-58            	952         	0           	                	;
 J-59            	962         	0           	                	;
 J-60            	953         	0           	                	;
 J-61            	954         	7.128       	                	;
 J-62            	966         	0           	                	;
 J-63            	951         	0           	                	;
 J-64            	959         	0           	                	;
 J-65            	783         	7.128       	1               	;
 J-66            	782         	7.128       	1               	;
 J-67            	954         	0           	                	;
 J-68            	950         	7.128       	                	;
 J-69            	960         	0           	                	;
 J-70            	959         	0           	                	;
 J-71            	950         	7.128       	2               	;
 J-72            	954         	7.128       	                	;
 J-73            	783         	7.128       	1               	;
 J-74            	801         	7.128       	1               	;
 J-75            	965         	7.128       	3               	;
 J-76            	964         	0           	                	;
 J-77            	785         	7.128       	1               	;
 J-78            	890         	0           	                	;
 J-79            	965         	0           	                	;
 J-80            	825         	7.128       	1               	;
 J-81            	782         	7.128       	1               	;
 J-82            	954         	0           	                	;
 J-83            	962         	0           	                	;
 J-84            	952         	0           	                	;
 J-85            	950         	0           	                	;
 J-86            	950         	7.128       	3               	;
 J-87            	957         	0           	                	;
 J-88            	954         	0           	                	;
 J-89            	965         	0           	                	;
 J-90            	950         	0           	                	;
 J-1             	809         	7.128       	1               	;
 J-3             	800         	7.128       	1               	;
 J-4             	795         	7.128       	1               	;
 J-5             	790         	7.128       	1               	;
 J-7             	788         	7.128       	1               	;
 J-9             	785         	7.128       	1               	;
 J-10            	785         	7.128       	1               	;
 J-11            	785         	7.128       	1               	;
 J-12            	790         	7.128       	1               	;
 J-13            	790         	7.128       	1               	;
 J-15            	945         	7.128       	                	;
 J-16            	945         	7.128       	2               	;
 J-17            	948         	7.128       	2               	;
 J-19            	950         	7.128       	2               	;
 J-20            	957         	0           	                	;
 J-21            	956         	0           	                	;
 J-22            	953         	7.128       	3               	;
 J-23            	964         	7.128       	3               	;
 J-24            	966         	7.128       	3               	;
 J-25            	966         	7.128       	3               	;
 J-26            	951         	0           	                	;
 J-27            	949         	0           	                	;
 J-29            	949         	0           	                	;
 J-30            	965         	0           	                	;
 J-32            	948         	7.128       	3               	;
 J-35            	957         	0           	                	;
 J-37            	957         	0           	                	;

[RESERVOIRS]
;ID              	Head        	Pattern         
 stp2            	1030        	R2              	;
 STP1            	1020        	R1              	;

[TANKS]
;ID              	Elevation   	InitLevel   	MinLevel    	MaxLevel    	Diameter    	MinVol      	VolCurve

[PIPES]
;ID              	Node1           	Node2           	Length      	Diameter    	Roughness   	MinorLoss   	Status
 P-92            	J-6             	J-8             	16.687851441898	63          	105         	0           	Open  	;
 P-36            	J-39            	J-40            	18.1199620352243	110         	105         	0           	Open  	;
 P-91            	J-6             	J-8             	16.687851441898	63          	105         	0           	Open  	;
 P-46            	J-41            	J-42            	5.59884548359828	160         	105         	0           	Open  	;
 P-47            	J-45            	J-46            	46.8874753817543	160         	105         	0           	Open  	;
 P-85            	J-47            	J-48            	64.0374050816055	160         	105         	0           	Open  	;
 P-93            	J-50            	J-51            	62.2527298060456	63          	105         	0           	Open  	;
 P-42            	J-52            	J-53            	72.5161620054242	160         	105         	0           	Open  	;
 P-84            	J-54            	J-47            	99.3609353292829	160         	105         	0           	Open  	;
 P-37            	J-28            	J-36            	80.7698600784704	160         	105         	0           	Open  	;
 P-45            	J-55            	J-41            	139.449178030647	160         	105         	0           	Open  	;
 P-79            	J-56            	J-57            	99.7998700776806	160         	105         	0           	Open  	;
 P-41            	J-34            	J-52            	116.139299714227	160         	105         	0           	Open  	;
 P-32            	J-58            	J-59            	118.24128695361	110         	105         	0           	Open  	;
 P-64            	J-61            	J-43            	134.964643763832	160         	105         	0           	Open  	;
 P-52            	J-62            	J-76            	142.563108055351	160         	105         	0           	Open  	;
 P-38            	J-49            	J-63            	150.357058094302	160         	105         	0           	Open  	;
 P-90            	J-64            	J-6             	192.713886772818	63          	105         	0           	Open  	;
 P-68            	J-65            	J-66            	245.102852781123	160         	105         	0           	Open  	;
 P-8             	J-36            	J-78            	6.55374040982166	160         	105         	0           	Open  	;
 P-9             	J-49            	J-58            	4.46350799522467	160         	105         	0           	Open  	;
 P-78            	J-80            	J-78            	179.053855657729	160         	105         	0           	Open  	;
 P-10            	J-80            	J-74            	55.8315208192347	110         	105         	0           	Open  	;
 P-11            	J-73            	J-66            	5.59285931028605	160         	105         	0           	Open  	;
 P-12            	J-73            	J-81            	73.3345172490353	110         	105         	0           	Open  	;
 P-13            	J-77            	J-66            	277.905808423253	160         	105         	0           	Open  	;
 P-14            	J-59            	J-18            	6.75795171549856	110         	105         	0           	Open  	;
 P-15            	J-83            	J-18            	6.91617661091137	63          	105         	0           	Open  	;
 P-16            	J-83            	J-82            	6.33706551932044	40          	105         	0           	Open  	;
 P-39            	J-60            	J-84            	4.78226481950669	160         	105         	0           	Open  	;
 P-40            	J-84            	J-34            	131.484374710509	160         	105         	0           	Open  	;
 P-17            	J-63            	J-84            	3.57752452639634	160         	105         	0           	Open  	;
 P-18            	J-8             	J-85            	97.7991121091934	63          	105         	0           	Open  	;
 P-19            	J-55            	J-64            	4.57469364008973	160         	105         	0           	Open  	;
 P-20            	J-50            	J-42            	3.61219967892025	160         	105         	0           	Open  	;
 P-23            	J-44            	J-79            	2.34883041048761	160         	105         	0           	Open  	;
 P-24            	J-79            	J-87            	26.3263594993742	63          	105         	0           	Open  	;
 P-66            	J-67            	J-33            	121.574859695167	160         	105         	0           	Open  	;
 P-67            	J-33            	J-68            	146.38785360171	160         	105         	0           	Open  	;
 P-27            	J-33            	J-2             	14.0705413203557	40          	105         	0           	Open  	;
 P-28            	J-61            	J-88            	11.6087138408008	110         	105         	0           	Open  	;
 P-29            	J-14            	J-89            	16.1410452015602	90          	105         	0           	Open  	;
 P-58            	J-76            	J-90            	15.7306278320739	160         	105         	0           	Open  	;
 P-59            	J-90            	J-44            	24.6389007906822	160         	105         	0           	Open  	;
 P-30            	stp2            	J-90            	128.351396512996	160         	120         	0           	Open  	;
 P-33            	J-58            	STP1            	4.92871013840382	160         	105         	0           	Open  	;
 P-31            	J-61            	J-72            	5.11778072443192	160         	105         	0           	Open  	;
 P-63            	J-54            	J-38            	100.806856052065	160         	105         	0           	Open  	;
 P-43            	J-53            	J-31            	153.060174602293	160         	105         	0           	Open  	;
 P-44            	J-31            	J-70            	122.485682036533	160         	105         	0           	Open  	;
 P-57            	J-14            	J-76            	93.2806294358786	160         	105         	0           	Open  	;
 P-69            	J-77            	J-56            	38.1434602885034	160         	105         	0           	Open  	;
 P-34            	STP1            	J-40            	129.885961235963	160         	105         	0           	Open  	;
 P-35            	J-40            	J-28            	138.405064845878	160         	105         	0           	Open  	;
 P-65            	J-43            	J-67            	16.1641078090739	160         	105         	0           	Open  	;
 P-77            	J-1             	J-80            	167.548426056077	160         	105         	0           	Open  	;
 P-76            	J-3             	J-1             	90.2210659274025	160         	105         	0           	Open  	;
 P-75            	J-4             	J-3             	81.147656288191	160         	105         	0           	Open  	;
 P-74            	J-5             	J-4             	73.0155643544725	160         	105         	0           	Open  	;
 P-73            	J-7             	J-5             	85.3342156747424	160         	105         	0           	Open  	;
 P-72            	J-9             	J-7             	86.1306097612852	160         	105         	0           	Open  	;
 P-70            	J-56            	J-10            	131.990253642235	160         	105         	0           	Open  	;
 P-71            	J-10            	J-9             	105.92158344811	160         	105         	0           	Open  	;
 P-80            	J-73            	J-11            	129.951754683314	160         	105         	0           	Open  	;
 P-81            	J-11            	J-12            	123.198723469094	160         	105         	0           	Open  	;
 P-82            	J-12            	J-13            	99.2573642354032	160         	105         	0           	Open  	;
 P-83            	J-13            	J-74            	94.0175307042864	160         	105         	0           	Open  	;
 P-25            	J-38            	J-15            	158.818506713354	160         	105         	0           	Open  	;
 P-26            	J-15            	J-72            	139.782427382717	160         	105         	0           	Open  	;
 P-89            	J-16            	J-72            	131.19914812664	160         	105         	0           	Open  	;
 P-88            	J-17            	J-16            	140.752223787611	160         	105         	0           	Open  	;
 P-86            	J-71            	J-19            	122.38352300507	160         	105         	0           	Open  	;
 P-87            	J-19            	J-17            	107.212359007826	160         	105         	0           	Open  	;
 P-62            	J-20            	J-54            	329.851995505629	160         	105         	0           	Open  	;
 P-60            	J-79            	J-21            	192.260153738295	160         	105         	0           	Open  	;
 P-61            	J-21            	J-20            	116.709612644373	160         	105         	0           	Open  	;
 P-21            	J-69            	J-22            	168.064041095357	160         	105         	0           	Open  	;
 P-22            	J-22            	J-86            	179.129537306141	160         	105         	0           	Open  	;
 P-56            	J-23            	J-14            	190.912809262077	160         	105         	0           	Open  	;
 P-55            	J-24            	J-23            	130.717950459579	160         	105         	0           	Open  	;
 P-53            	J-75            	J-25            	86.7659228075104	160         	105         	0           	Open  	;
 P-54            	J-25            	J-24            	132.209073483765	160         	105         	0           	Open  	;
 P-1             	J-70            	J-26            	158.437609051326	152.40000000061	105         	0           	Open  	;
 P-3             	J-26            	J-27            	137.856620986117	152.40000000061	105         	0           	Open  	;
 P-6             	J-27            	J-29            	117.685718231699	152.40000000061	105         	0           	Open  	;
 P-7             	J-29            	J-8             	123.368796456827	152.40000000061	105         	0           	Open  	;
 P-50            	J-69            	J-30            	143.436463940693	160         	105         	0           	Open  	;
 P-51            	J-30            	J-62            	167.994880671602	160         	105         	0           	Open  	;
 P-48            	J-46            	J-32            	119.178934715951	160         	105         	0           	Open  	;
 P-49            	J-32            	J-86            	96.5959704999605	160         	105         	0           	Open  	;
 P-2             	J-44            	J-35            	101.577305329751	157         	105         	0           	Open  	;
 P-4             	J-35            	J-37            	102.118795380248	157         	105         	0           	Open  	;
 P-5             	J-37            	J-71            	111.384165168474	157         	105         	0           	Open  	;

[PUMPS]
;ID              	Node1           	Node2           	Parameters

[VALVES]
;ID              	Node1           	Node2           	Diameter    	Type	Setting     	MinorLoss   

[TAGS]

[DEMANDS]
;Junction        	Demand      	Pattern         	Category

[STATUS]
;ID              	Status/Setting

[PATTERNS]
;ID              	Multipliers
;
 R1              	1           	1           	1           	1           	1           	1           
 R1              	1           	1           	1           	1           	1           	1           
 R1              	1           	1           	1           	1           	1           	1           
 R1              	1           	1           	1           	1           	1           	1           
 R1              	1.993601238 	2.121655724 	2.360352188 	2.267848239 	2.227944575 	2.214522433 
 R1              	2.184050544 	2.173167727 	2.164461473 	2.151039331 	2.141607556 	2.122018485 
 R1              	2.104605977 	2.093360398 	2.000493689 	2.029514536 	2.21887556  	2.181873981 
 R1              	2.1688146   	2.179697417 	2.184050544 	2.133264063 	2.053456734 	2.031328339 
 R1              	2.119841921 	2.184050544 	1           	1           	1           	1           
 R1              	1           	1           	1           	1           	1           	1           
 R1              	1           	1           	1           	1           	1           	1           
 R1              	1           	1           	2.148500007 	2.142333077 	2.111135667 	2.064702312 
 R1              	1.940638193 	2.190580235 	2.318997481 	2.325527172 	2.34293968  	1           
 R1              	1           	1           	1           	1           	1           	1           
 R1              	1           	1           	1           	1           	1           	1           
 R1              	1           	1           	1           	1           	1           	1           
;
 R2              	1           	1           	1           	1           	1           	1           
 R2              	1           	1           	1           	1           	1           	1           
 R2              	1           	1           	1           	1           	1           	1           
 R2              	1           	1           	1           	1           	1           	1           
 R2              	3.248221623 	3.26031568  	3.144467341 	3.102456404 	3.07826829  	3.062355056 
 R2              	3.016524944 	2.974514007 	2.98215236  	2.970694831 	2.940141423 	2.915953308 
 R2              	2.915953308 	2.870759725 	2.745999975 	2.745999975 	2.877125019 	2.861848315 
 R2              	2.816018202 	2.858029139 	2.842752434 	2.835114082 	2.726904095 	2.714810037 
 R2              	2.792466617 	2.842752434 	1           	1           	1           	1           
 R2              	1           	1           	1           	1           	1           	1           
 R2              	1           	1           	1           	1           	1           	1           
 R2              	1           	1           	2.989790712 	2.936322247 	2.928683895 	2.803924145 
 R2              	2.672799101 	2.889219076 	3.066174232 	3.098000699 	3.098000699 	1           
 R2              	1           	1           	1           	1           	1           	1           
 R2              	1           	1           	1           	1           	1           	1           
 R2              	1           	1           	1           	1           	1           	1           
;
 1               	0           	0           	0           	0           	0           	0           
 1               	0           	0           	0           	0           	0           	0           
 1               	0           	0           	0           	0           	0           	0           
 1               	0           	0           	0           	0           	0           	0           
 1               	2.098968456 	2.012856929 	1.926745403 	1.661234863 	1.75093437  	1.575123337 
 1               	1.575123337 	1.575123337 	1.48901181  	1.399312304 	1.313200777 	1.223501271 
 1               	1.313200777 	1.051278218 	0.961578711 	1.137389744 	1.051278218 	1.051278218 
 1               	1.051278218 	0.961578711 	0.789355659 	0.699656152 	0.613544626 	0.523845119 
 1               	0.437733592 	0.437733592 	0           	0           	0           	0           
 1               	0           	0           	0           	0           	0           	0           
 1               	0           	0           	0           	0           	0           	0           
 1               	0           	0           	1.313200777 	1.399312304 	1.223501271 	1.223501271 
 1               	1.313200777 	1.575123337 	1.575123337 	1.75093437  	1.75093437  	0           
 1               	0           	0           	0           	0           	0           	0           
 1               	0           	0           	0           	0           	0           	0           
 1               	0           	0           	0           	0           	0           	0           
;
 2               	0           	0           	0           	0           	0           	0           
 2               	0           	0           	0           	0           	0           	0           
 2               	0           	0           	0           	0           	0           	0           
 2               	0           	0           	0           	0           	0           	0           
 2               	1.475434618 	1.32728647  	1.399848828 	1.254724112 	1.106575964 	1.106575964 
 2               	1.106575964 	1.030990174 	1.030990174 	0.958427816 	1.030990174 	0.958427816 
 2               	0.885865457 	0.885865457 	0.810279667 	1.030990174 	1.030990174 	1.106575964 
 2               	1.106575964 	1.106575964 	1.030990174 	1.106575964 	1.030990174 	1.030990174 
 2               	1.106575964 	1.106575964 	0           	0           	0           	0           
 2               	0           	0           	0           	0           	0           	0           
 2               	0           	0           	0           	0           	0           	0           
 2               	0           	0           	1.547996977 	1.399848828 	1.399848828 	1.32728647  
 2               	1.399848828 	1.475434618 	1.623582766 	1.696145125 	1.696145125 	0           
 2               	0           	0           	0           	0           	0           	0           
 2               	0           	0           	0           	0           	0           	0           
 2               	0           	0           	0           	0           	0           	0           
;
 3               	0           	0           	0           	0           	0           	0           
 3               	0           	0           	0           	0           	0           	0           
 3               	0           	0           	0           	0           	0           	0           
 3               	0           	0           	0           	0           	0           	0           
 3               	1.528532742 	1.450226761 	1.299879278 	1.221573298 	1.146399556 	1.068093576 
 3               	1.068093576 	1.068093576 	0.992919834 	0.992919834 	0.992919834 	0.917746093 
 3               	0.917746093 	0.839440112 	0.917746093 	0.992919834 	0.992919834 	1.068093576 
 3               	1.068093576 	0.992919834 	1.068093576 	1.068093576 	1.068093576 	0.917746093 
 3               	0.992919834 	1.068093576 	0           	0           	0           	0           
 3               	0           	0           	0           	0           	0           	0           
 3               	0           	0           	0           	0           	0           	0           
 3               	0           	0           	1.37505302  	1.37505302  	1.450226761 	1.37505302  
 3               	1.37505302  	1.450226761 	1.528532742 	1.603706483 	1.682012464 	0           
 3               	0           	0           	0           	0           	0           	0           
 3               	0           	0           	0           	0           	0           	0           
 3               	0           	0           	0           	0           	0           	0           

[CURVES]
;ID              	X-Value     	Y-Value

[CONTROLS]


[RULES]


[ENERGY]
 Global Efficiency  	75
 Global Price       	0
 Demand Charge      	0

[EMITTERS]
;Junction        	Coefficient

[QUALITY]
;Node            	InitQual
 J-38            	1
 J-45            	1
 J-46            	1
 J-47            	1
 J-48            	1
 J-54            	1
 J-56            	1
 J-57            	1
 J-61            	1
 J-65            	1
 J-66            	1
 J-71            	1
 J-72            	1
 J-73            	1
 J-74            	1
 J-75            	1
 J-77            	1
 J-80            	1
 J-81            	1
 J-86            	1
 J-1             	1
 J-3             	1
 J-4             	1
 J-5             	1
 J-7             	1
 J-9             	1
 J-10            	1
 J-11            	1
 J-12            	1
 J-13            	1
 J-15            	1
 J-16            	1
 J-17            	1
 J-19            	1
 J-22            	1
 J-23            	1
 J-24            	1
 J-25            	1
 J-32            	1

[SOURCES]
;Node            	Type        	Quality     	Pattern

[REACTIONS]
;Type     	Pipe/Tank       	Coefficient


[REACTIONS]
 Order Bulk            	1
 Order Tank            	1
 Order Wall            	1
 Global Bulk           	0
 Global Wall           	0
 Limiting Potential    	0
 Roughness Correlation 	0

[MIXING]
;Tank            	Model

[TIMES]
 Duration           	23:00
 Hydraulic Timestep 	00:15
 Quality Timestep   	0:15
 Pattern Timestep   	0:15
 Pattern Start      	0:00 
 Report Timestep    	0:15
 Report Start       	0:00 
 Start ClockTime    	12 am
 Statistic          	NONE

[REPORT]
 Status             	No
 Summary            	No
 Page               	0

[OPTIONS]
 Units              	LPS
 Headloss           	H-W
 Specific Gravity   	0.998
 Viscosity          	0.953336232581635
 Trials             	40
 Accuracy           	0.001
 CHECKFREQ          	2
 MAXCHECK           	10
 DAMPLIMIT          	0
 Unbalanced         	Continue 10
 Pattern            	R1
 Demand Multiplier  	1.0
 Emitter Exponent   	0.5
 Quality            	NONE mg/L
 Diffusivity        	1
 Tolerance          	0.01

[COORDINATES]
;Node            	X-Coord         	Y-Coord
 J-2             	1034.38         	303.27          
 J-6             	1072.29         	1749.56         
 J-8             	1073.61         	1766.20         
 J-14            	1300.38         	1062.49         
 J-18            	527.91          	1309.68         
 J-28            	500.00          	1014.09         
 J-31            	416.03          	1779.20         
 J-33            	1067.89         	285.20          
 J-34            	244.51          	1563.35         
 J-36            	533.73          	940.71          
 J-38            	1550.95         	410.68          
 J-39            	466.83          	1147.09         
 J-40            	449.24          	1142.75         
 J-41            	1000.77         	1509.43         
 J-42            	1003.81         	1513.47         
 J-43            	1137.54         	291.22          
 J-44            	1273.60         	932.83          
 J-45            	1008.73         	1493.89         
 J-46            	982.71          	1462.83         
 J-47            	1438.02         	497.41          
 J-48            	1409.98         	463.05          
 J-49            	369.91          	1320.06         
 J-50            	1001.66         	1516.38         
 J-51            	971.47          	1566.89         
 J-52            	267.36          	1672.61         
 J-53            	267.24          	1745.10         
 J-54            	1518.27         	492.02          
 J-55            	1019.21         	1599.86         
 J-56            	540.06          	371.19          
 J-57            	526.02          	468.99          
 J-58            	396.44          	1275.29         
 J-59            	506.73          	1300.04         
 J-60            	283.33          	1438.23         
 J-61            	1252.77         	321.20          
 J-62            	1134.78         	956.12          
 J-63            	288.20          	1437.05         
 J-64            	1023.76         	1599.35         
 J-65            	929.16          	253.53          
 J-66            	852.89          	381.05          
 J-67            	1123.20         	319.25          
 J-68            	927.14          	247.97          
 J-69            	872.96          	979.86          
 J-70            	537.14          	1796.88         
 J-71            	1390.28         	653.64          
 J-72            	1268.96         	325.14          
 J-73            	848.21          	398.26          
 J-74            	702.46          	795.34          
 J-75            	965.41          	1448.05         
 J-76            	1276.34         	972.42          
 J-77            	575.03          	357.34          
 J-78            	536.76          	934.90          
 J-79            	1273.69         	929.76          