[TITLE]
Scenario: Base 
Date: 25-07-2023 20:35:39 

[JUNCTIONS]
J-101 970 0 
J-100 967 0 
J-99 975 0 
J-98 983 0 
J-97 985 0 
J-96 986 0 
J-95 980 0 
J-94 983 0 
J-92 987 0 
J-90 969 0 
J-89 984 0 
J-88 977 0 
J-87 987 0 
J-86 981 0 
J-85 977 0 
J-84 973 0 
J-83 977 0 
J-82 970 0 
J-81 975 0 
J-80 985 0 
J-79 973 0 
J-78 969 0 
J-77 979 0 
J-76 974 0 
J-75 987 0 
J-74 982 0 
J-73 969 0 
J-72 982 0 
J-71 985 0 
J-69 966 0 
J-68 971 0 
J-67 967 0 
J-66 968 0 
J-65 985 0 
J-64 977 0 
J-63 977 0 
J-62 976 0 
J-61 968 0 
J-60 987 0 
J-59 971 0 
J-58 970 0 
J-57 982 0 
J-56 985 0 
J-55 976 0 
J-54 974 0 
J-53 971 0 
J-52 970 0 
J-51 985 0 
J-50 976 0 
J-48 983 0 
J-47 969 0 
J-46 969 0 
J-45 981 0 
J-40 978 0 
J-39 976 0 
J-35 986 0 
J-31 966 0 
J-29 980 0 
J-28 984 0 
J-25 968 0 
J-23 986 0 
J-14 976 0 
J-11 985 0 
J-6 984 0 
J-5 977 0 
J-2 974 0 

[RESERVOIRS]
STP1 995 
stp2 995 

[DEMANDS]
J-101 2.33 
J-100 2.33 
J-99 2.33 
J-98 2.33 
J-97 2.33 
J-96 2.33 
J-95 2.33 
J-94 2.33 
J-92 2.33 
J-90 2.33 
J-89 2.33 
J-88 2.33 
J-87 2.33 
J-86 2.33 
J-85 2.33 
J-84 2.33 
J-83 2.33 
J-82 2.33 
J-81 2.33 
J-80 2.33 
J-79 2.33 
J-78 2.33 
J-77 2.33 
J-76 2.33 
J-75 2.33 
J-74 2.33 
J-73 2.33 
J-72 2.33 
J-71 2.33 
J-69 2.33 
J-68 2.33 
J-67 2.33 
J-66 2.33 
J-65 2.33 
J-64 2.33 
J-63 2.33 
J-62 2.33 
J-61 2.33 
J-60 2.33 
J-59 2.33 
J-58 2.33 
J-57 2.33 
J-56 2.33 
J-55 2.33 
J-54 2.33 
J-53 2.33 
J-52 2.33 
J-51 2.33 
J-50 2.33 
J-48 2.33 
J-47 2.33 
J-46 2.33 
J-45 2.33 
J-40 2.33 
J-39 2.33 
J-35 2.33 
J-31 2.33 
J-29 2.33 
J-28 2.33 
J-25 2.33 
J-23 2.33 
J-14 2.33 
J-11 2.33 
J-6 2.33 
J-5 2.33 
J-2 2.33 

[EMITTERS]

[PIPES]
P-12 J-6 J-96 97.7991121091934 63 130 0 
P-11 J-71 J-95 3.57752452639634 160 130 0 
P-33 J-95 J-29 131.484374710509 160 130 0 
P-32 J-67 J-95 4.78226481950669 160 130 0 
P-10 J-94 J-92 6.33706551932044 40 130 0 
P-9 J-94 J-14 6.91617661091137 63 130 0 
P-8 J-66 J-14 6.75795171549856 110 130 0 
P-7 J-86 J-74 277.905808423253 160 130 0 
P-6 J-82 J-90 73.3345172490353 110 130 0 
P-5 J-82 J-74 5.59285931028605 160 130 0 
P-4 J-89 J-83 55.8315208192347 110 130 0 
P-59 J-89 J-87 179.053855657729 160 130 0 
P-3 J-55 J-65 4.46350799522467 160 130 0 
P-2 J-31 J-87 6.55374040982166 160 130 0 
P-1 J-79 J-6 537.348744725969 152.40000000061 130 0 
P-61 J-82 J-83 446.425373092098 160 130 0 
P-64 J-80 J-81 501.547253927147 160 130 0 
P-43 J-78 J-69 311.431344612295 160 130 0 
P-56 J-73 J-74 245.102852781123 160 130 0 
P-65 J-72 J-5 192.713886772818 63 130 0 
P-31 J-56 J-71 150.357058094302 160 130 0 
P-44 J-69 J-85 142.563108055351 160 130 0 
P-51 J-68 J-47 134.964643763832 160 130 0 
P-24 J-65 J-66 118.24128695361 110 130 0 
P-34 J-29 J-59 116.139299714227 160 130 0 
P-60 J-63 J-64 99.7998700776806 160 130 0 
P-38 J-62 J-45 139.449178030647 160 130 0 
P-29 J-23 J-31 80.7698600784704 160 130 0 
P-62 J-61 J-53 99.3609353292829 160 130 0 
P-35 J-59 J-60 72.5161620054242 160 130 0 
P-68 J-57 J-58 62.2527298060456 63 130 0 
P-30 J-55 J-56 48.4453252651141 160 130 0 
P-63 J-53 J-54 64.0374050816055 160 130 0 
P-40 J-51 J-52 46.8874753817543 160 130 0 
P-39 J-45 J-46 5.59884548359828 160 130 0 
P-66 J-5 J-6 16.687851441898 63 130 0 
P-28 J-39 J-40 18.1199620352243 110 130 0 
P-67 J-5 J-6 16.687851441898 63 130 0 
P-53 J-75 J-48 9.52976376605858 160 130 0 
P-52 J-47 J-75 16.1641078090739 160 130 0 
P-27 J-40 J-23 138.405064845878 160 130 0 
P-26 STP1 J-40 129.885961235963 160 130 0 
P-58 J-63 J-89 821.309375152515 160 130 0 
P-57 J-86 J-63 38.1434602885034 160 130 0 
P-46 J-11 J-85 93.2806294358786 160 130 0 
P-45 J-84 J-11 540.605756012932 160 130 0 
P-37 J-25 J-79 122.485682036533 160 130 0 
P-36 J-60 J-25 153.060174602293 160 130 0 
P-50 J-61 J-35 100.806856052065 160 130 0 
P-49 J-88 J-61 638.821761888296 160 130 0 
P-23 J-68 J-81 5.11778072443192 160 130 0 
P-25 J-65 STP1 4.92871013840382 160 130 0 
P-22 stp2 J-101 128.351396512996 160 130 0 
P-48 J-101 J-50 24.6389007906822 160 130 0 
P-47 J-85 J-101 15.7306278320739 160 130 0 
P-21 J-11 J-100 16.1410452015602 90 130 0 
P-20 J-68 J-99 11.6087138408008 110 130 0 
P-19 J-28 J-2 14.0705413203557 40 130 0 
P-55 J-28 J-76 146.38785360171 160 130 0 
P-54 J-75 J-28 121.574859695167 160 130 0 
P-18 J-35 J-81 298.600934096071 160 130 0 
P-17 J-88 J-98 26.3263594993742 63 130 0 
P-16 J-50 J-88 2.34883041048761 160 130 0 
P-15 J-78 J-97 347.193578401498 160 130 0 
P-42 J-97 J-77 6.22769163039076 160 130 0 
P-41 J-52 J-97 215.774905215911 160 130 0 
P-14 J-57 J-46 3.61219967892025 160 130 0 
P-13 J-62 J-72 4.57469364008973 160 130 0 

[COORDINATES]
J-101 1275.15230272085 956.952399842789  
J-100 1316.51464687733 1062.9642756116  
J-99 1263.854268147 311.015742671042  
J-98 1247.80939646036 929.769157851282  
J-97 827.781563401532 1324.10448401827  
J-96 1107.5076869675 1836.70822679562  
J-95 287.072118564892 1440.44845246048  
J-94 527.024921375954 1303.7984915401  
J-92 533.603860068422 1305.69868940548  
J-90 775.351665606442 389.896056714447  
J-89 646.630065455024 795.772871872098  
J-88 1273.68677708087 929.75707094902  
J-87 536.7574747392 934.90114432  
J-86 575.0256475392 357.34221952  
J-85 1276.34383610903 972.420606106207  
J-84 965.4115291392 1448.04829312  
J-83 702.4599259392 795.34229632  
J-82 848.2073563392 398.26264192  
J-81 1268.96326600587 325.13633152  
J-80 1390.2766555392 653.63638912  
J-79 537.1363675392 1796.88226432  
J-78 872.9616859392 979.86308992  
J-77 821.9374555392 1323.01366912  
J-76 927.1433563392 247.96849792  
J-75 1121.64568681593 302.905940681634  
J-74 850.6070107392 393.21073792  
J-73 929.1641179392 253.52559232  
J-72 1023.7610203392 1599.35281792  
J-71 288.2037979392 1437.05463697776  
J-69 1134.7766107392 956.11914112  
J-68 1259.9375323392 323.74705792  
J-67 283.332906512262 1438.22804089543  
J-66 513.891269548374 1300.04018510165  
J-65 399.9771739392 1268.20051072  
J-64 526.0221787392 468.98929792  
J-63 540.06239770041 371.192584797579  
J-62 1019.2143067392 1599.85800832  
J-61 1518.27147515128 492.022758978614  
J-60 267.2383963392 1745.10024832  
J-59 267.3646939392 1672.60542592  
J-58 971.4738139392 1566.89433472  
J-57 1001.6589403392 1516.37529472  
J-56 372.6968923392 1313.28875392  
J-55 398.0827099392 1272.24203392  
J-54 1409.9790811392 463.05331072  
J-53 1438.0171483392 497.40625792  
J-52 982.7143003392 1462.82511232  
J-51 1008.7316059392 1493.89432192  
J-50 1273.60266622575 932.829122149677  
J-48 1121.6416603392 293.68822912  
J-47 1128.5880283392 293.94082432  
J-46 1003.8059995392 1513.47044992  
J-45 1000.7748571392 1509.42892672  
J-40 449.238006135202 1142.74757020835  
J-39 466.830345913242 1147.08837719461  
J-35 1550.9480794934 410.681199961705  
J-31 533.728345577566 940.712847158366  
J-29 244.506841577566 1563.3519622049  
J-28 1064.39300664482 281.703058182939  
J-25 416.027035331031 1779.20060032  
J-23 499.996820185736 1014.09376599673  
J-14 520.129352985801 1302.20505162326  
J-11 1300.38051921533 1062.49176657983  
J-6 1073.60835018543 1766.19863196982  
J-5 1072.29399582885 1749.56262107862  
J-2 1050.33347084773 282.259462907948  
STP1 401.466281480198 1263.50213415359  
stp2 1399.23894529443 989.763771677162  

[VERTICES]
P-12 1062.64559311399 1810.93638564574
P-33 285.8041435392 1442.99638912
P-33 284.5411675392 1445.26974592
P-33 283.2781915392 1447.79569792
P-33 282.2678107392 1449.56386432
P-33 281.0048347392 1451.58462592
P-33 279.3629659392 1453.98428032
P-33 277.2159067392 1457.26801792
P-33 275.7003355392 1459.41507712
P-33 274.1847643392 1461.81473152
P-33 273.0480859392 1464.34068352
P-33 271.5325147392 1467.62442112
P-33 270.2695387392 1470.65556352
P-33 269.2591579392 1472.67632512
P-33 268.5013723392 1475.07597952
P-33 267.7435867392 1477.09674112
P-33 266.7332059392 1479.49639552
P-33 265.9754203392 1481.51715712
P-33 263.4494683392 1487.32684672
P-33 259.9131355392 1495.28359552
P-33 257.3871835392 1501.59847552
P-33 254.7349339392 1509.68152192
P-33 252.7141723392 1516.37529472
P-33 250.9460059392 1522.43757952
P-33 248.1674587392 1535.19363712
P-33 246.9044827392 1542.26630272
P-33 245.8941019392 1549.08637312
P-33 245.3889115392 1554.51716992
P-33 244.6311259392 1560.57945472
P-32 287.3197147392 1440.34413952
P-59 647.1415771392 796.10008192
P-59 642.4685659392 799.76271232
P-59 608.2419163392 840.80943232
P-59 574.8993499392 874.53089152
P-59 544.9668187392 917.09318272
P-61 850.6070107392 402.68305792
P-61 850.1018203392 421.24880512
P-61 836.7142747392 440.57233792
P-61 827.9997403392 451.68652672
P-61 814.7384923392 470.50486912
P-61 801.3509467392 498.16404352
P-61 763.9668571392 565.48066432
P-61 742.2436699392 572.30073472
P-61 740.3492059392 574.19519872
P-61 738.9599323392 584.17270912
P-61 714.3319003392 778.67101312
P-61 705.8699611392 796.10008192
P-64 1203.1036123392 629.89244032
P-64 1222.9323355392 453.70728832
P-64 1244.0240347392 404.19862912
P-43 879.6554587392 927.82847872
P-43 883.0654939392 923.91325312
P-43 1031.2125787392 942.47900032
P-43 1102.4444251392 951.19353472
P-43 1109.7696859392 952.45651072
P-43 1120.1260891392 953.97208192
P-43 1126.0620763392 954.85616512
P-56 948.040576043285 310.291330424085
P-56 949.050956843285 321.026626424085
P-56 938.694553643285 405.898613624085
P-65 1021.6139611392 1610.08811392
P-65 1019.5931995392 1618.42375552
P-65 1017.8250331392 1624.99123072
P-65 1017.3198427392 1627.39088512
P-65 1014.9201883392 1637.87358592
P-65 1012.5205339392 1647.47220352
P-65 1011.2575579392 1651.64002432
P-65 1009.1104987392 1657.95490432
P-65 1005.7004635392 1666.54314112
P-65 1004.0585947392 1671.08985472
P-65 1002.4167259392 1675.88916352
P-65 1001.1537499392 1680.94106752
P-65 1000.3959643392 1686.37186432
P-65 1000.1433691392 1690.53968512
P-65 1000.3959643392 1697.23345792
P-65 1000.3959643392 1697.86494592
P-65 1000.5222619392 1698.87532672
P-65 1000.7748571392 1700.13830272
P-65 1001.0274523392 1701.27498112
P-65 1001.4063451392 1702.41165952
P-65 1001.7852379392 1703.29574272
P-65 1002.4167259392 1704.93761152
P-65 1002.9219163392 1705.69539712
P-65 1004.8163803392 1707.96875392
P-65 1006.0793563392 1708.97913472
P-65 1006.9634395392 1709.73692032
P-65 1007.7212251392 1710.24211072
P-65 1008.7316059392 1710.62100352
P-65 1009.9945819392 1711.37878912
P-65 1010.8786651392 1711.88397952
P-65 1013.0257243392 1712.89436032
P-65 1017.4461403392 1715.04141952
P-65 1018.5828187392 1715.67290752
P-65 1019.8457947392 1716.55699072
P-65 1020.9824731392 1717.18847872
P-65 1021.8665563392 1717.81996672
P-65 1022.7506395392 1718.32515712
P-65 1027.2973531392 1721.48259712
P-65 1031.2125787392 1724.38744192
P-65 1040.4323035392 1731.83900032
P-65 1047.6312667392 1737.01720192
P-65 1051.6727899392 1739.54315392
P-65 1056.5983963392 1741.94280832
P-65 1059.5032411392 1743.20578432
P-65 1066.7022043392 1746.23692672
P-31 370.9287259392 1316.95138432
P-31 368.0238811392 1322.88737152
P-31 366.2557147392 1326.42370432
P-31 364.2349531392 1330.33892992
P-31 361.8352987392 1334.63304832
P-31 360.0671323392 1337.41159552
P-31 357.7937755392 1340.56903552
P-31 355.3941211392 1343.85277312
P-31 352.6155739392 1347.38910592
P-31 349.7107291392 1350.67284352
P-31 347.5636699392 1354.08287872
P-31 343.6484443392 1360.65035392
P-31 341.8802779392 1363.42890112
P-31 338.5965403392 1368.73340032
P-31 336.5757787392 1372.26973312
P-31 334.5550171392 1375.80606592
P-31 332.7868507392 1378.20572032
P-31 330.5134939392 1381.48945792
P-31 327.9875419392 1384.77319552
P-31 325.3352923392 1388.30952832
P-31 321.7989595392 1393.10883712
P-31 319.0204123392 1396.89776512
P-31 316.4944603392 1400.43409792
P-31 314.7262939392 1402.83375232
P-31 311.3162587392 1407.88565632
P-31 308.7903067392 1411.92717952
P-31 306.1380571392 1416.09500032
P-31 304.8750811392 1417.48427392
P-31 300.0757723392 1423.29396352
P-31 295.0238683392 1429.35624832
P-31 290.8560475392 1434.15555712
P-31 289.8456667392 1435.29223552
P-44 1140.0811099392 956.87692672
P-44 1145.8907995392 957.76100992
P-44 1151.1952987392 958.51879552
P-44 1154.6053339392 959.02398592
P-44 1157.8890715392 959.52917632
P-44 1163.0672731392 960.03436672
P-44 1166.4773083392 960.41325952
P-44 1173.0447835392 961.04474752
P-44 1176.8337115392 961.42364032
P-44 1180.6226395392 961.80253312
P-44 1182.6434011392 962.05512832
P-44 1187.1901147392 962.56031872
P-44 1191.1053403392 962.93921152
P-44 1197.7991131392 963.57069952
P-44 1199.3146843392 963.82329472
P-44 1204.1139931392 964.32848512
P-44 1212.9548251392 965.21256832
P-44 1236.8250715392 967.61222272
P-44 1247.5603675392 968.87519872
P-44 1264.2316507392 970.64336512
P-44 1270.6728283392 971.14855552
P-51 1175.5707355392 300.38200192
P-24 404.0186971392 1269.33718912
P-24 408.4391131392 1270.60016512
P-24 411.7228507392 1271.48424832
P-24 414.5013979392 1272.36833152
P-24 416.7747547392 1272.87352192
P-24 419.6795995392 1273.75760512
P-24 423.8474203392 1274.89428352
P-24 426.2470747392 1275.65206912
P-24 428.2678363392 1276.15725952
P-24 432.4356571392 1277.29393792
P-24 434.0775259392 1277.79912832
P-24 440.7712987392 1279.69359232
P-24 448.4754523392 1281.84065152
P-24 455.9270107392 1283.98771072
P-24 459.4633435392 1284.99809152
P-24 463.2522715392 1286.00847232
P-24 472.5982939392 1288.66072192
P-24 477.7764955392 1290.17629312
P-24 481.1865307392 1291.06037632
P-24 484.9754587392 1292.07075712
P-24 489.2695771392 1293.33373312
P-24 499.7522779392 1296.23857792
P-24 505.4356699392 1297.88044672
P-34 243.8733403392 1569.92547712
P-34 243.3681499392 1577.50333312
P-34 243.1155547392 1584.95489152
P-34 242.8629595392 1593.79572352
P-34 242.9892571392 1600.99468672
P-34 243.6207451392 1608.69884032
P-34 244.8837211392 1615.01372032
P-34 246.6518875392 1619.43413632
P-34 249.1778395392 1623.47565952
P-34 253.0930651392 1628.27496832
P-34 257.3871835392 1633.20057472
P-34 261.3024091392 1638.12618112
P-34 264.0809563392 1642.16770432
P-34 265.5965275392 1648.10369152
P-34 266.8595035392 1653.91338112
P-34 267.3646939392 1656.81822592
P-34 267.6172891392 1661.36493952
P-34 267.6172891392 1664.77497472
P-60 535.3682011392 379.06540672
P-60 535.8733915392 400.40970112
P-38 1020.3509851392 1594.67980672
P-38 1020.8561755392 1592.02755712
P-38 1021.6139611392 1589.12271232
P-38 1021.1087707392 1566.76803712
P-38 1021.1087707392 1559.44277632
P-38 1021.1087707392 1555.90644352
P-38 1021.1087707392 1551.61232512
P-38 1020.6035803392 1547.57080192
P-38 1019.2143067392 1544.91855232
P-38 1016.8146523392 1542.64519552
P-38 1011.5101531392 1538.60367232
P-38 1006.2056539392 1533.17287552
P-38 1004.6900827392 1527.11059072
P-38 1005.3215707392 1523.44796032
P-38 1006.8371419392 1520.16422272
P-38 1006.9634395392 1519.65903232
P-38 1010.6260699392 1516.24899712
P-38 1012.3942363392 1513.97564032
P-38 1013.5309147392 1511.07079552
P-38 1017.3198427392 1505.38740352
P-38 1019.0880091392 1502.73515392
P-38 1015.8042715392 1499.95660672
P-38 1013.4046171392 1497.93584512
P-38 1008.7316059392 1493.89432192
P-38 1007.0897371392 1498.31473792
P-38 1006.5845467392 1499.95660672
P-38 1004.6900827392 1502.73515392
P-38 1003.6797019392 1504.25072512
P-29 506.6986459392 1000.32330112
P-29 512.6346331392 986.93575552
P-29 518.8232155392 973.04301952
P-29 530.5688923392 947.27830912
P-62 1492.8303067392 485.15539072
P-62 1483.2316891392 509.53082752
P-35 267.2383963392 1677.65732992
P-35 267.1120987392 1682.70923392
P-35 267.2383963392 1686.49816192
P-35 267.3646939392 1691.04487552
P-35 267.3646939392 1695.84418432
P-35 267.3646939392 1700.39089792
P-35 267.3646939392 1705.69539712
P-35 267.3646939392 1709.73692032
P-35 267.6172891392 1714.78882432
P-35 267.6172891392 1722.11408512
P-35 267.6172891392 1731.46010752
P-35 267.3646939392 1737.26979712
P-35 267.3646939392 1741.94280832
P-68 1003.5534043392 1517.13308032
P-68 1002.9219163392 1518.14346112
P-68 1002.4167259392 1518.77494912
P-68 1001.9115355392 1519.53273472
P-68 1001.0274523392 1520.92200832
P-68 1000.1433691392 1522.18498432
P-68 999.3855835392 1523.19536512
P-68 998.3752027392 1524.96353152
P-68 997.6174171392 1525.97391232
P-68 995.8492507392 1528.49986432
P-68 994.3336795392 1530.89951872
P-68 993.0707035392 1532.54138752
P-68 991.0499419392 1535.57252992
P-68 989.7869659392 1537.34069632
P-68 988.7765851392 1538.85626752
P-68 987.5136091392 1540.62443392
P-68 985.2402523392 1544.03446912
P-68 984.4824667392 1545.17114752
P-68 983.4720859392 1546.68671872
P-68 982.3354075392 1548.20228992
P-68 981.1987291392 1549.97045632
P-68 980.4409435392 1550.98083712
P-68 979.4305627392 1552.62270592
P-68 978.6727771392 1553.75938432
P-68 977.9149915392 1554.76976512
P-68 976.6520155392 1556.53793152
P-68 976.0205275392 1557.54831232
P-68 975.1364443392 1558.81128832
P-68 973.9997659392 1560.45315712
P-68 972.8630875392 1562.09502592
P-68 971.8527067392 1563.61059712
P-68 970.5897307392 1565.50506112
P-30 395.0515675392 1275.52577152
P-30 392.1467227392 1279.18840192
P-30 389.9996635392 1282.21954432
P-30 387.3474139392 1286.38736512
P-30 384.8214619392 1290.42888832
P-30 382.0429147392 1295.48079232
P-30 379.2643675392 1300.40639872
P-30 376.1069275392 1306.72127872
P-63 1442.21288626779 466.017882149649
P-40 1013.0257243392 1487.07425152
P-40 1008.1001179392 1483.03272832
P-40 1006.7108443392 1482.02234752
P-40 1005.4478683392 1480.88566912
P-40 1001.9115355392 1478.10712192
P-40 998.7540955392 1475.45487232
P-40 996.1018459392 1473.43411072
P-40 993.8284891392 1471.66594432
P-40 990.6710491392 1469.13999232
P-40 988.1450971392 1466.99293312
P-39 1001.0274523392 1509.93411712
P-39 1001.5326427392 1511.44968832
P-39 1002.0378331392 1512.96525952
P-53 1121.5153627392 303.03425152
P-52 1128.7143259392 303.03425152
P-27 456.9373915392 1123.71605632
P-27 462.7470811392 1108.56034432
P-27 468.8093659392 1093.53092992
P-27 474.7453531392 1079.89078912
P-27 480.9339355392 1066.25064832
P-27 485.2280539392 1055.64164992
P-27 489.7747675392 1045.28524672
P-27 493.3111003392 1035.30773632
P-26 406.4183515392 1251.02403712
P-26 412.7332315392 1233.84756352
P-26 419.8058971392 1216.41849472
P-26 427.1311579392 1198.86312832
P-26 434.9616091392 1177.89772672
P-26 440.5187035392 1163.62609792
P-26 444.5602267392 1153.52228992
P-26 448.8543451392 1143.41848192
P-58 321.7989595392 448.15019392
P-58 320.5359835392 457.62251392
P-58 320.2833883392 458.00140672
P-58 335.6916955392 520.89761152
P-58 359.5619419392 603.74883712
P-58 367.7712859392 625.85091712
P-58 405.1553755392 697.84054912
P-58 446.3283931392 776.52395392
P-58 461.3578075392 818.95994752
P-58 532.2107611392 806.33018752
P-58 533.7263323392 809.36132992
P-58 603.6952027392 795.21599872
P-58 638.1744475392 792.56374912
P-57 574.0152667392 359.23668352
P-46 1300.3527643392 1061.83023232
P-46 1295.9323483392 1042.50669952
P-46 1292.2697179392 1030.38212992
P-46 1289.7437659392 1021.79389312
P-46 1287.5967067392 1014.59492992
P-46 1285.3233499392 1005.62780032
P-46 1283.1762907392 998.04994432
P-46 1281.0292315392 988.95651712
P-46 1279.8925531392 985.16758912
P-46 1277.6191963392 977.84232832
P-45 966.6745051392 1444.63825792
P-45 968.3163739392 1438.82856832
P-45 969.7056475392 1432.00849792
P-45 970.8423259392 1426.19880832
P-45 972.6104923392 1415.71610752
P-45 976.3994203392 1395.76108672
P-45 978.9253723392 1382.75243392
P-45 982.0828123392 1371.63824512
P-45 983.5983835392 1366.46004352
P-45 986.6295259392 1357.11402112
P-45 989.6606683392 1350.16765312
P-45 991.4288347392 1345.87353472
P-45 992.9444059392 1342.46349952
P-45 997.1122267392 1335.39083392
P-45 1000.2696667392 1329.96003712
P-45 1005.3215707392 1324.15034752
P-45 1008.7316059392 1319.98252672
P-45 1011.1312603392 1317.20397952
P-45 1013.1520219392 1314.80432512
P-45 1016.4357595392 1311.01539712
P-45 1020.7298779392 1306.08979072
P-45 1027.9288411392 1298.76452992
P-45 1030.5810907392 1296.11228032
P-45 1032.7281499392 1293.96522112
P-45 1044.3475291392 1282.34584192
P-45 1049.9046235392 1277.04134272
P-45 1064.6814427392 1264.03268992
P-45 1078.4478811392 1251.90812032
P-45 1086.5309275392 1244.58285952
P-45 1094.1087835392 1237.76278912
P-45 1100.1710683392 1232.96348032
P-45 1106.9911387392 1226.64860032
P-45 1114.9478875392 1221.21780352
P-45 1117.9790299392 1219.19704192
P-45 1121.0101723392 1217.17628032
P-45 1123.7887195392 1215.40811392
P-45 1130.2298971392 1211.11399552
P-45 1137.1762651392 1206.56728192
P-45 1145.3856091392 1201.01018752
P-45 1149.8060251392 1198.23164032
P-45 1151.9530843392 1196.71606912
P-45 1154.1001435392 1195.20049792
P-45 1159.2783451392 1191.91676032
P-45 1162.3094875392 1190.14859392
P-45 1164.5828443392 1188.75932032
P-45 1167.1087963392 1187.37004672
P-45 1169.1295579392 1186.23336832
P-45 1170.3925339392 1185.34928512
P-45 1175.4444379392 1182.57073792
P-45 1179.7385563392 1180.04478592
P-45 1182.2645083392 1178.52921472
P-45 1184.5378651392 1177.26623872
P-45 1187.0638171392 1175.75066752
P-45 1189.0845787392 1174.61398912
P-45 1190.9790427392 1173.47731072
P-45 1196.1572443392 1170.44616832
P-45 1198.4306011392 1169.18319232
P-45 1201.2091483392 1167.54132352
P-45 1203.7351003392 1166.15204992
P-45 1206.2610523392 1164.63647872
P-45 1208.7870043392 1163.12090752
P-45 1211.3129563392 1161.73163392
P-45 1213.0811227392 1160.59495552
P-45 1215.1018843392 1159.58457472
P-45 1217.1226459392 1158.32159872
P-45 1220.4063835392 1156.55343232
P-45 1221.9219547392 1155.54305152
P-45 1224.4479067392 1154.02748032
P-45 1226.7212635392 1152.76450432
P-45 1229.2472155392 1151.24893312
P-45 1230.8890843392 1150.36484992
P-45 1232.7835483392 1149.22817152
P-45 1234.5517147392 1148.21779072
P-45 1237.7091547392 1146.44962432
P-45 1240.6139995392 1144.80775552
P-45 1243.3925467392 1143.16588672
P-45 1245.4133083392 1141.90291072
P-45 1247.6866651392 1140.63993472
P-45 1250.2126171392 1139.12436352
P-45 1252.2333787392 1137.86138752
P-45 1254.2541403392 1136.59841152
P-45 1263.3475675392 1131.29391232
P-45 1270.2939355392 1126.99979392
P-45 1275.4721371392 1123.96865152
P-45 1276.3562203392 1123.33716352
P-45 1278.6295771392 1121.69529472
P-45 1281.2818267392 1119.92712832
P-45 1283.0499931392 1118.66415232
P-45 1285.1970523392 1117.14858112
P-45 1287.7230043392 1115.38041472
P-45 1290.6278491392 1110.32851072
P-45 1292.3960155392 1107.67626112
P-45 1297.3216219392 1097.19356032
P-45 1299.2160859392 1081.78525312
P-45 1299.9738715392 1064.10358912
P-37 431.8041691392 1782.10544512
P-37 440.3924059392 1783.62101632
P-37 449.2332379392 1785.26288512
P-37 457.5688795392 1787.03105152
P-37 459.3370459392 1787.28364672
P-37 464.8941403392 1788.29402752
P-37 467.6726875392 1788.79921792
P-37 471.2090203392 1789.30440832
P-37 476.0083291392 1790.06219392
P-37 477.5239003392 1790.31478912
P-37 479.7972571392 1790.56738432
P-37 481.9443163392 1790.81997952
P-37 485.9858395392 1791.32516992
P-37 488.7643867392 1791.57776512
P-37 491.0377435392 1791.95665792
P-37 493.4373979392 1792.20925312
P-37 498.7418971392 1792.84074112
P-37 503.9200987392 1793.47222912
P-37 508.8457051392 1793.85112192
P-37 513.7713115392 1794.35631232
P-37 519.0758107392 1794.86150272
P-37 524.3803099392 1795.36669312
P-37 529.1796187392 1795.87188352
P-36 268.7539675392 1745.73173632
P-36 270.1432411392 1746.23692672
P-36 274.9425499392 1747.75249792
P-36 278.4788827392 1749.01547392
P-36 280.7522395392 1749.77325952
P-36 283.7833819392 1751.03623552
P-36 286.0567387392 1751.79402112
P-36 288.5826907392 1752.55180672
P-36 290.6034523392 1753.05699712
P-36 292.3716187392 1753.68848512
P-36 295.4027611392 1754.95146112
P-36 298.0550107392 1755.83554432
P-36 300.4546651392 1756.59332992
P-36 302.3491291392 1757.09852032
P-36 303.9909979392 1757.47741312
P-36 306.2643547392 1757.85630592
P-36 308.5377115392 1758.23519872
P-36 310.8110683392 1758.74038912
P-36 311.6951515392 1758.86668672
P-36 312.8318299392 1759.11928192
P-36 314.8525915392 1759.62447232
P-36 316.1155675392 1759.87706752
P-36 317.3785435392 1760.12966272
P-36 318.7678171392 1760.50855552
P-36 319.7781979392 1760.63485312
P-36 320.9148763392 1760.88744832
P-36 322.0515547392 1761.14004352
P-36 322.9356379392 1761.39263872
P-36 323.5671259392 1761.51893632
P-36 324.0723163392 1761.51893632
P-36 326.2193755392 1762.02412672
P-36 328.9979227392 1762.65561472
P-36 330.6397915392 1763.03450752
P-36 331.2712795392 1763.16080512
P-36 332.2816603392 1763.28710272
P-36 333.0394459392 1763.53969792
P-36 335.5653979392 1764.04488832
P-36 336.7020763392 1764.29748352
P-36 337.8387547392 1764.42378112
P-36 338.7228379392 1764.67637632
P-36 339.4806235392 1764.80267392
P-36 340.4910043392 1765.05526912
P-36 342.8906587392 1765.43416192
P-36 344.4062299392 1765.68675712
P-36 345.4166107392 1765.93935232
P-36 346.6795867392 1766.06564992
P-36 350.4685147392 1766.82343552
P-36 351.9840859392 1767.07603072
P-36 353.1207643392 1767.32862592
P-36 355.0152283392 1767.58122112
P-36 356.2782043392 1767.83381632
P-36 357.2885851392 1768.08641152
P-36 359.3093467392 1768.33900672
P-36 361.0775131392 1768.71789952
P-36 362.3404891392 1768.97049472
P-36 363.3508699392 1769.09679232
P-36 364.6138459392 1769.34938752
P-36 366.3820123392 1769.72828032
P-36 367.6449883392 1769.98087552
P-36 368.5290715392 1770.10717312
P-36 369.6657499392 1770.35976832
P-36 371.0550235392 1770.61236352
P-36 371.9391067392 1770.86495872
P-36 372.9494875392 1771.11755392
P-36 374.2124635392 1771.37014912
P-36 375.6017371392 1771.62274432
P-36 376.4858203392 1771.74904192
P-36 377.2436059392 1771.87533952
P-36 381.1588315392 1772.63312512
P-36 384.8214619392 1773.39091072
P-36 386.5896283392 1773.76980352
P-36 389.1155803392 1774.27499392
P-36 392.2730203392 1774.90648192
P-36 394.4200795392 1775.41167232
P-36 396.4408411392 1775.79056512
P-36 399.9771739392 1776.54835072
P-36 402.7557211392 1777.05354112
P-36 405.0290779392 1777.55873152
P-36 408.1865179392 1778.19021952
P-36 409.5757915392 1778.44281472
P-36 413.2384219392 1778.94800512
P-36 414.7539931392 1779.20060032
P-36 415.3854811392 1779.20060032
P-50 1518.4687195392 492.35435392
P-50 1530.8458843392 495.89068672
P-49 1280.9029339392 927.44958592
P-49 1291.6382299392 926.94439552
P-49 1297.0690267392 927.57588352
P-49 1302.6261211392 928.33366912
P-49 1305.7835611392 928.71256192
P-49 1307.6780251392 928.96515712
P-49 1309.3198939392 929.21775232
P-49 1310.2039771392 929.21775232
P-49 1332.4323547392 932.24889472
P-49 1337.9894491392 933.00668032
P-49 1345.5673051392 933.89076352
P-49 1354.2818395392 935.02744192
P-49 1371.2057179392 937.30079872
P-49 1378.1520859392 938.05858432
P-49 1384.2143707392 937.67969152
P-49 1386.8666203392 935.15373952
P-49 1389.1399771392 928.20737152
P-49 1391.1607387392 895.87518592
P-49 1389.3925723392 871.75234432
P-49 1390.5292507392 865.31116672
P-49 1394.3181787392 860.13296512
P-49 1398.2334043392 841.44092032
P-49 1400.3804635392 830.45302912
P-49 1404.4219867392 813.78174592
P-49 1407.2005339392 801.53087872
P-49 1409.9790811392 789.40630912
P-49 1410.9894619392 784.85959552
P-49 1413.2628187392 771.85094272
P-49 1414.1469019392 766.54644352
P-49 1415.6624731392 758.21080192
P-49 1390.2766555392 653.51009152
P-49 1405.8112603392 649.97375872
P-49 1436.3752795392 631.02911872
P-49 1450.5206107392 625.72461952
P-49 1464.1607515392 619.66233472
P-49 1476.5379163392 615.87340672
P-49 1491.8199259392 610.31631232
P-49 1495.8614491392 608.80074112
P-49 1496.9981275392 596.29727872
P-49 1504.5759835392 564.72287872
P-49 1506.5967451392 534.91664512
P-48 1273.8302683392 942.73159552
P-48 1273.4513755392 933.38557312
P-47 1275.9773275392 971.27485312
P-47 1276.7351131392 964.58108032
P-55 1062.5343835392 279.29030272
P-55 1044.8527195392 268.30241152
P-55 1012.5205339392 262.11382912
P-55 935.9841883392 254.15708032
P-55 929.1641179392 253.39929472
P-54 1121.6416603392 340.16574592
P-54 1085.3942491392 317.68477312
P-42 827.8734427392 1323.89775232
P-41 980.8198363392 1461.30954112
P-41 979.0516699392 1460.04656512
P-41 977.7886939392 1459.03618432
P-41 976.2731227392 1457.89950592
P-41 973.6208731392 1455.75244672
P-41 971.9790043392 1454.61576832
P-41 972.4841947392 1453.85798272
P-41 965.4115291392 1448.04829312
P-41 950.7610075392 1440.21784192
P-41 935.6052955392 1429.22995072
P-41 927.0170587392 1423.04136832
P-41 916.9132507392 1415.71610752
P-41 910.9772635392 1411.54828672
P-41 905.2938715392 1406.87527552
P-41 898.2212059392 1401.57077632
P-41 889.6329691392 1395.38219392
P-41 886.6018267392 1393.23513472
P-41 883.5706843392 1391.21437312
P-41 880.5395419392 1388.94101632
P-41 878.1398875392 1387.29914752
P-41 873.2142811392 1383.88911232
P-41 869.1727579392 1380.85796992
P-41 865.2575323392 1377.82682752
P-41 855.9115099392 1370.50156672
P-41 846.9443803392 1363.42890112
P-41 837.9772507392 1356.48253312
P-41 835.1987035392 1353.70398592
P-41 826.8630619392 1330.97041792

[OPTIONS]
UNITS LPS 
TRIALS 40 
ACCURACY 0.001 
EMITTER EXPONENT 0.5 
DAMPLIMIT 0 
MAXCHECK 10 
CHECKFREQ 2 
SPECIFIC GRAVITY 0.998 
VISCOSITY 0.967639744253774 
HEADLOSS H-W 
QUALITY NONE 

[TIMES]
REPORT START 0  
PATTERN TIMESTEP 1  
QUALITY TIMESTEP 0  

